/*--------------------------------*- C++ -*----------------------------------*\
| =========                 |                                                 |
| \\      /  F ield         | OpenFOAM: The Open Source CFD Toolbox           |
|  \\    /   O peration     | Version:  v1806                                 |
|   \\  /    A nd           | Web:      www.OpenFOAM.com                      |
|    \\/     M anipulation  |                                                 |
\*---------------------------------------------------------------------------*/
FoamFile
{
    version     2.0;
    format      ascii;
    class       vectorField;
    location    "constant";
    object      cloud_of_points;
}
// * * * * * * * * * * * * * * * * * * * * * * * * * * * * * * * * * * * * * //


648
(
(0.25 0.5 0.05)
(0.75 0.5 0.05)
(0.35 0.5 0.05)
(0.65 0.5 0.05)
(0.250951 0.478211 0.05)
(0.253798 0.456588 0.05)
(0.258519 0.435295 0.05)
(0.265077 0.414495 0.05)
(0.273423 0.394345 0.05)
(0.283494 0.375 0.05)
(0.295212 0.356606 0.05)
(0.308489 0.339303 0.05)
(0.323223 0.323223 0.05)
(0.339303 0.308489 0.05)
(0.356606 0.295212 0.05)
(0.375 0.283494 0.05)
(0.394345 0.273423 0.05)
(0.414495 0.265077 0.05)
(0.435295 0.258519 0.05)
(0.456588 0.253798 0.05)
(0.478211 0.250951 0.05)
(0.5 0.25 0.05)
(0.521789 0.250951 0.05)
(0.543412 0.253798 0.05)
(0.564705 0.258519 0.05)
(0.585505 0.265077 0.05)
(0.605655 0.273423 0.05)
(0.625 0.283494 0.05)
(0.643394 0.295212 0.05)
(0.660697 0.308489 0.05)
(0.676777 0.323223 0.05)
(0.691511 0.339303 0.05)
(0.704788 0.356606 0.05)
(0.716506 0.375 0.05)
(0.726577 0.394345 0.05)
(0.734923 0.414495 0.05)
(0.741481 0.435295 0.05)
(0.746202 0.456588 0.05)
(0.749049 0.478211 0.05)
(0.749049 0.521789 0.05)
(0.746202 0.543412 0.05)
(0.741481 0.564705 0.05)
(0.734923 0.585505 0.05)
(0.726577 0.605655 0.05)
(0.716506 0.625 0.05)
(0.704788 0.643394 0.05)
(0.691511 0.660697 0.05)
(0.676777 0.676777 0.05)
(0.660697 0.691511 0.05)
(0.643394 0.704788 0.05)
(0.625 0.716506 0.05)
(0.605655 0.726577 0.05)
(0.585505 0.734923 0.05)
(0.564705 0.741481 0.05)
(0.543412 0.746202 0.05)
(0.521789 0.749049 0.05)
(0.5 0.75 0.05)
(0.478211 0.749049 0.05)
(0.456588 0.746202 0.05)
(0.435295 0.741481 0.05)
(0.414495 0.734923 0.05)
(0.394345 0.726577 0.05)
(0.375 0.716506 0.05)
(0.356606 0.704788 0.05)
(0.339303 0.691511 0.05)
(0.323223 0.676777 0.05)
(0.308489 0.660697 0.05)
(0.295212 0.643394 0.05)
(0.283494 0.625 0.05)
(0.273423 0.605655 0.05)
(0.265077 0.585505 0.05)
(0.258519 0.564705 0.05)
(0.253798 0.543412 0.05)
(0.250951 0.521789 0.05)
(0.350571 0.486927 0.05)
(0.352279 0.473953 0.05)
(0.355111 0.461177 0.05)
(0.359046 0.448697 0.05)
(0.364054 0.436607 0.05)
(0.370096 0.425 0.05)
(0.377127 0.413964 0.05)
(0.385093 0.403582 0.05)
(0.393934 0.393934 0.05)
(0.403582 0.385093 0.05)
(0.413964 0.377127 0.05)
(0.425 0.370096 0.05)
(0.436607 0.364054 0.05)
(0.448697 0.359046 0.05)
(0.461177 0.355111 0.05)
(0.473953 0.352279 0.05)
(0.486927 0.350571 0.05)
(0.5 0.35 0.05)
(0.513073 0.350571 0.05)
(0.526047 0.352279 0.05)
(0.538823 0.355111 0.05)
(0.551303 0.359046 0.05)
(0.563393 0.364054 0.05)
(0.575 0.370096 0.05)
(0.586036 0.377127 0.05)
(0.596418 0.385093 0.05)
(0.606066 0.393934 0.05)
(0.614907 0.403582 0.05)
(0.622873 0.413964 0.05)
(0.629904 0.425 0.05)
(0.635946 0.436607 0.05)
(0.640954 0.448697 0.05)
(0.644889 0.461177 0.05)
(0.647721 0.473953 0.05)
(0.649429 0.486927 0.05)
(0.649429 0.513073 0.05)
(0.647721 0.526047 0.05)
(0.644889 0.538823 0.05)
(0.640954 0.551303 0.05)
(0.635946 0.563393 0.05)
(0.629904 0.575 0.05)
(0.622873 0.586036 0.05)
(0.614907 0.596418 0.05)
(0.606066 0.606066 0.05)
(0.596418 0.614907 0.05)
(0.586036 0.622873 0.05)
(0.575 0.629904 0.05)
(0.563393 0.635946 0.05)
(0.551303 0.640954 0.05)
(0.538823 0.644889 0.05)
(0.526047 0.647721 0.05)
(0.513073 0.649429 0.05)
(0.5 0.65 0.05)
(0.486927 0.649429 0.05)
(0.473953 0.647721 0.05)
(0.461177 0.644889 0.05)
(0.448697 0.640954 0.05)
(0.436607 0.635946 0.05)
(0.425 0.629904 0.05)
(0.413964 0.622873 0.05)
(0.403582 0.614907 0.05)
(0.393934 0.606066 0.05)
(0.385093 0.596418 0.05)
(0.377127 0.586036 0.05)
(0.370096 0.575 0.05)
(0.364054 0.563393 0.05)
(0.359046 0.551303 0.05)
(0.355111 0.538823 0.05)
(0.352279 0.526047 0.05)
(0.350571 0.513073 0.05)
(0.694256 0.465747 0.05)
(0.305744 0.534253 0.05)
(0.306427 0.465627 0.05)
(0.693573 0.534373 0.05)
(0.329939 0.40148 0.05)
(0.432535 0.314643 0.05)
(0.626792 0.651105 0.05)
(0.374138 0.349908 0.05)
(0.567018 0.684825 0.05)
(0.669615 0.597988 0.05)
(0.500237 0.303399 0.05)
(0.329858 0.598506 0.05)
(0.499709 0.696537 0.05)
(0.670142 0.401494 0.05)
(0.432501 0.684578 0.05)
(0.374124 0.649998 0.05)
(0.567493 0.315415 0.05)
(0.625875 0.350001 0.05)
(0.332737 0.457162 0.05)
(0.328214 0.482813 0.05)
(0.672128 0.482874 0.05)
(0.667605 0.457222 0.05)
(0.327872 0.517126 0.05)
(0.332395 0.542778 0.05)
(0.357516 0.402531 0.05)
(0.344493 0.425088 0.05)
(0.667263 0.542838 0.05)
(0.671786 0.517187 0.05)
(0.655548 0.425095 0.05)
(0.642525 0.402538 0.05)
(0.642261 0.597203 0.05)
(0.655284 0.574646 0.05)
(0.399569 0.360002 0.05)
(0.379616 0.376745 0.05)
(0.600896 0.640504 0.05)
(0.620849 0.623761 0.05)
(0.513142 0.327839 0.05)
(0.487095 0.327839 0.05)
(0.453244 0.333461 0.05)
(0.428768 0.342369 0.05)
(0.486831 0.672129 0.05)
(0.512878 0.672129 0.05)
(0.546533 0.666273 0.05)
(0.571009 0.657365 0.05)
(0.344452 0.574905 0.05)
(0.357475 0.597462 0.05)
(0.42875 0.657241 0.05)
(0.453227 0.666149 0.05)
(0.379609 0.623208 0.05)
(0.399562 0.639951 0.05)
(0.571246 0.342755 0.05)
(0.54677 0.333847 0.05)
(0.620391 0.376792 0.05)
(0.600438 0.360049 0.05)
(0.682199 0.433621 0.05)
(0.693915 0.50006 0.05)
(0.306085 0.49994 0.05)
(0.318183 0.433553 0.05)
(0.681594 0.566181 0.05)
(0.317801 0.566379 0.05)
(0.352038 0.375694 0.05)
(0.466386 0.309021 0.05)
(0.648203 0.624547 0.05)
(0.533364 0.690681 0.05)
(0.403337 0.332275 0.05)
(0.596905 0.667965 0.05)
(0.648009 0.375748 0.05)
(0.533865 0.309407 0.05)
(0.466105 0.690558 0.05)
(0.403312 0.667288 0.05)
(0.351991 0.624252 0.05)
(0.596684 0.332708 0.05)
(0.680827 0.370399 0.05)
(0.702533 0.407994 0.05)
(0.71459 0.440121 0.05)
(0.722128 0.482874 0.05)
(0.28541 0.559879 0.05)
(0.277872 0.517126 0.05)
(0.702269 0.591747 0.05)
(0.680563 0.629343 0.05)
(0.555452 0.284606 0.05)
(0.596246 0.299454 0.05)
(0.297508 0.407987 0.05)
(0.319214 0.370391 0.05)
(0.521561 0.72137 0.05)
(0.478149 0.72137 0.05)
(0.374562 0.683252 0.05)
(0.341307 0.655347 0.05)
(0.319173 0.629601 0.05)
(0.297467 0.592006 0.05)
(0.478413 0.278599 0.05)
(0.521825 0.278599 0.05)
(0.444544 0.71539 0.05)
(0.40375 0.700542 0.05)
(0.659151 0.655901 0.05)
(0.625896 0.683806 0.05)
(0.403768 0.299068 0.05)
(0.444562 0.28422 0.05)
(0.596009 0.700666 0.05)
(0.555215 0.715514 0.05)
(0.341313 0.344605 0.05)
(0.374569 0.316701 0.05)
(0.625438 0.316747 0.05)
(0.658693 0.344652 0.05)
(0.278214 0.482813 0.05)
(0.285752 0.440061 0.05)
(0.721786 0.517187 0.05)
(0.714248 0.559939 0.05)
(0.340246 0.478383 0.05)
(0.339107 0.491407 0.05)
(0.342508 0.465557 0.05)
(0.330475 0.469988 0.05)
(0.345891 0.452929 0.05)
(0.319582 0.461394 0.05)
(0.31732 0.47422 0.05)
(0.661064 0.491437 0.05)
(0.659925 0.478413 0.05)
(0.669867 0.470048 0.05)
(0.657663 0.465587 0.05)
(0.683192 0.474311 0.05)
(0.680931 0.461485 0.05)
(0.65428 0.45296 0.05)
(0.338936 0.508563 0.05)
(0.340075 0.521587 0.05)
(0.330133 0.529952 0.05)
(0.342337 0.534413 0.05)
(0.316808 0.525689 0.05)
(0.319069 0.538515 0.05)
(0.34572 0.54704 0.05)
(0.357294 0.425044 0.05)
(0.351769 0.436893 0.05)
(0.363806 0.413765 0.05)
(0.351004 0.41381 0.05)
(0.371305 0.403056 0.05)
(0.343728 0.402005 0.05)
(0.337216 0.413284 0.05)
(0.659754 0.521617 0.05)
(0.660893 0.508593 0.05)
(0.657492 0.534443 0.05)
(0.669525 0.530012 0.05)
(0.654109 0.547071 0.05)
(0.680418 0.538606 0.05)
(0.68268 0.52578 0.05)
(0.636214 0.413769 0.05)
(0.628716 0.40306 0.05)
(0.642726 0.425048 0.05)
(0.649036 0.413817 0.05)
(0.648251 0.436896 0.05)
(0.662845 0.413295 0.05)
(0.656334 0.402016 0.05)
(0.642594 0.574823 0.05)
(0.648119 0.562974 0.05)
(0.636082 0.586102 0.05)
(0.648773 0.585925 0.05)
(0.628584 0.596811 0.05)
(0.655938 0.597596 0.05)
(0.66245 0.586317 0.05)
(0.391599 0.380919 0.05)
(0.382354 0.390163 0.05)
(0.401575 0.372548 0.05)
(0.389592 0.368373 0.05)
(0.412284 0.365049 0.05)
(0.386853 0.354955 0.05)
(0.376877 0.363326 0.05)
(0.608634 0.619334 0.05)
(0.617878 0.61009 0.05)
(0.598657 0.627705 0.05)
(0.610873 0.632133 0.05)
(0.587948 0.635204 0.05)
(0.613844 0.645804 0.05)
(0.623821 0.637433 0.05)
(0.493548 0.33892 0.05)
(0.480524 0.340059 0.05)
(0.506571 0.33892 0.05)
(0.500119 0.327839 0.05)
(0.519595 0.340059 0.05)
(0.50669 0.315619 0.05)
(0.493666 0.315619 0.05)
(0.438732 0.350708 0.05)
(0.426884 0.356233 0.05)
(0.450971 0.346253 0.05)
(0.441006 0.337915 0.05)
(0.463598 0.34287 0.05)
(0.44289 0.324052 0.05)
(0.430652 0.328506 0.05)
(0.506439 0.661065 0.05)
(0.519463 0.659925 0.05)
(0.493416 0.661065 0.05)
(0.499855 0.672129 0.05)
(0.480392 0.659925 0.05)
(0.49327 0.684333 0.05)
(0.506294 0.684333 0.05)
(0.561156 0.649159 0.05)
(0.573005 0.643634 0.05)
(0.548918 0.653614 0.05)
(0.558771 0.661819 0.05)
(0.53629 0.656997 0.05)
(0.556776 0.675549 0.05)
(0.569014 0.671095 0.05)
(0.363786 0.586231 0.05)
(0.371284 0.59694 0.05)
(0.357274 0.574952 0.05)
(0.350964 0.586183 0.05)
(0.351749 0.563104 0.05)
(0.337155 0.586705 0.05)
(0.343666 0.597984 0.05)
(0.450962 0.653552 0.05)
(0.46359 0.656935 0.05)
(0.438724 0.649097 0.05)
(0.440989 0.661695 0.05)
(0.426875 0.643572 0.05)
(0.430626 0.670909 0.05)
(0.442864 0.675364 0.05)
(0.401572 0.627429 0.05)
(0.412281 0.634927 0.05)
(0.391595 0.619057 0.05)
(0.389585 0.631579 0.05)
(0.382351 0.609813 0.05)
(0.376866 0.636603 0.05)
(0.386843 0.644974 0.05)
(0.549037 0.346446 0.05)
(0.536409 0.343063 0.05)
(0.561275 0.350901 0.05)
(0.559008 0.338301 0.05)
(0.573123 0.356426 0.05)
(0.56937 0.329085 0.05)
(0.557131 0.324631 0.05)
(0.598428 0.372571 0.05)
(0.587719 0.365072 0.05)
(0.608405 0.380942 0.05)
(0.610414 0.36842 0.05)
(0.617649 0.390187 0.05)
(0.623133 0.363396 0.05)
(0.613156 0.355025 0.05)
(0.661577 0.441159 0.05)
(0.674902 0.445421 0.05)
(0.668874 0.429358 0.05)
(0.688228 0.449684 0.05)
(0.676171 0.417557 0.05)
(0.671957 0.50003 0.05)
(0.68285 0.508623 0.05)
(0.683021 0.491467 0.05)
(0.693744 0.517217 0.05)
(0.694086 0.482904 0.05)
(0.328043 0.49997 0.05)
(0.31715 0.491377 0.05)
(0.316979 0.508533 0.05)
(0.306256 0.482783 0.05)
(0.305914 0.517096 0.05)
(0.338615 0.441125 0.05)
(0.331338 0.429321 0.05)
(0.32546 0.445358 0.05)
(0.324061 0.417516 0.05)
(0.312305 0.44959 0.05)
(0.661274 0.558742 0.05)
(0.668439 0.570413 0.05)
(0.674429 0.554509 0.05)
(0.675604 0.582085 0.05)
(0.687583 0.550277 0.05)
(0.338423 0.558841 0.05)
(0.325098 0.554579 0.05)
(0.331126 0.570642 0.05)
(0.311772 0.550316 0.05)
(0.323829 0.582443 0.05)
(0.368566 0.389638 0.05)
(0.365827 0.376219 0.05)
(0.354777 0.389112 0.05)
(0.363088 0.362801 0.05)
(0.340989 0.388587 0.05)
(0.47017 0.33065 0.05)
(0.476741 0.31843 0.05)
(0.459815 0.321241 0.05)
(0.483312 0.30621 0.05)
(0.449461 0.311832 0.05)
(0.631555 0.610482 0.05)
(0.634526 0.624154 0.05)
(0.645232 0.610875 0.05)
(0.637498 0.637826 0.05)
(0.658909 0.611268 0.05)
(0.529706 0.669201 0.05)
(0.523121 0.681405 0.05)
(0.539948 0.678477 0.05)
(0.516537 0.693609 0.05)
(0.550191 0.687753 0.05)
(0.414168 0.351186 0.05)
(0.416052 0.337322 0.05)
(0.401453 0.346138 0.05)
(0.417936 0.323459 0.05)
(0.388737 0.341091 0.05)
(0.585953 0.648934 0.05)
(0.583957 0.662665 0.05)
(0.598901 0.654235 0.05)
(0.581962 0.676395 0.05)
(0.611848 0.659535 0.05)
(0.631458 0.389665 0.05)
(0.645267 0.389143 0.05)
(0.6342 0.37627 0.05)
(0.659076 0.388621 0.05)
(0.636942 0.362874 0.05)
(0.529956 0.330843 0.05)
(0.540318 0.321627 0.05)
(0.523504 0.318623 0.05)
(0.550679 0.312411 0.05)
(0.517051 0.306403 0.05)
(0.470029 0.669139 0.05)
(0.459666 0.678354 0.05)
(0.476468 0.681343 0.05)
(0.449303 0.687568 0.05)
(0.482907 0.693548 0.05)
(0.414156 0.648596 0.05)
(0.401437 0.653619 0.05)
(0.416031 0.662264 0.05)
(0.388718 0.658643 0.05)
(0.417907 0.675933 0.05)
(0.368542 0.610335 0.05)
(0.354733 0.610857 0.05)
(0.3658 0.62373 0.05)
(0.340924 0.611379 0.05)
(0.363057 0.637125 0.05)
(0.585842 0.351402 0.05)
(0.598561 0.346378 0.05)
(0.583965 0.337732 0.05)
(0.61128 0.341355 0.05)
(0.582088 0.324061 0.05)
(0.686169 0.354851 0.05)
(0.698667 0.372699 0.05)
(0.69168 0.389197 0.05)
(0.70952 0.391497 0.05)
(0.675485 0.385946 0.05)
(0.686338 0.404744 0.05)
(0.718728 0.411245 0.05)
(0.734165 0.469731 0.05)
(0.736064 0.491437 0.05)
(0.730396 0.448355 0.05)
(0.718359 0.461497 0.05)
(0.724756 0.427308 0.05)
(0.704423 0.452934 0.05)
(0.708192 0.474311 0.05)
(0.265835 0.530269 0.05)
(0.263936 0.508563 0.05)
(0.269604 0.551645 0.05)
(0.281641 0.538503 0.05)
(0.275244 0.572692 0.05)
(0.295577 0.547066 0.05)
(0.291808 0.525689 0.05)
(0.718596 0.588626 0.05)
(0.709388 0.608373 0.05)
(0.691416 0.610545 0.05)
(0.698535 0.627171 0.05)
(0.685942 0.594868 0.05)
(0.675089 0.613666 0.05)
(0.686037 0.64502 0.05)
(0.549432 0.269202 0.05)
(0.570479 0.274842 0.05)
(0.575849 0.29203 0.05)
(0.590876 0.282265 0.05)
(0.561473 0.30001 0.05)
(0.58187 0.307434 0.05)
(0.610623 0.291474 0.05)
(0.281292 0.411241 0.05)
(0.290501 0.391494 0.05)
(0.308361 0.389189 0.05)
(0.301354 0.372696 0.05)
(0.313723 0.404733 0.05)
(0.324576 0.385935 0.05)
(0.313851 0.354847 0.05)
(0.532486 0.733786 0.05)
(0.51078 0.735685 0.05)
(0.499855 0.72137 0.05)
(0.489074 0.735685 0.05)
(0.510635 0.708954 0.05)
(0.488929 0.708954 0.05)
(0.467368 0.733786 0.05)
(0.374781 0.699879 0.05)
(0.356933 0.687382 0.05)
(0.357934 0.6693 0.05)
(0.340305 0.673429 0.05)
(0.374343 0.666625 0.05)
(0.357715 0.652673 0.05)
(0.324898 0.658022 0.05)
(0.313831 0.645149 0.05)
(0.301333 0.627301 0.05)
(0.30832 0.610803 0.05)
(0.29048 0.608503 0.05)
(0.324515 0.614054 0.05)
(0.313662 0.595256 0.05)
(0.281272 0.588755 0.05)
(0.4675 0.266198 0.05)
(0.489206 0.264299 0.05)
(0.500119 0.278599 0.05)
(0.510912 0.264299 0.05)
(0.489325 0.290999 0.05)
(0.511031 0.290999 0.05)
(0.532618 0.266198 0.05)
(0.450566 0.730796 0.05)
(0.42952 0.725157 0.05)
(0.424147 0.707966 0.05)
(0.409123 0.717733 0.05)
(0.438523 0.699984 0.05)
(0.418126 0.69256 0.05)
(0.389375 0.708524 0.05)
(0.675331 0.658299 0.05)
(0.659924 0.673706 0.05)
(0.642524 0.669853 0.05)
(0.643296 0.687658 0.05)
(0.642972 0.653503 0.05)
(0.626344 0.667455 0.05)
(0.625448 0.700156 0.05)
(0.389384 0.291281 0.05)
(0.409131 0.282073 0.05)
(0.424165 0.291644 0.05)
(0.429528 0.274649 0.05)
(0.418152 0.306855 0.05)
(0.438549 0.299432 0.05)
(0.450575 0.269009 0.05)
(0.610505 0.708586 0.05)
(0.590757 0.717795 0.05)
(0.575612 0.70809 0.05)
(0.57036 0.725218 0.05)
(0.581514 0.692746 0.05)
(0.561117 0.70017 0.05)
(0.549314 0.730858 0.05)
(0.324901 0.341954 0.05)
(0.340308 0.326547 0.05)
(0.357941 0.330653 0.05)
(0.356936 0.312595 0.05)
(0.357726 0.347256 0.05)
(0.374353 0.333304 0.05)
(0.374784 0.300097 0.05)
(0.625219 0.300121 0.05)
(0.643067 0.312618 0.05)
(0.642065 0.3307 0.05)
(0.659695 0.326571 0.05)
(0.625656 0.333374 0.05)
(0.642284 0.347327 0.05)
(0.675102 0.341978 0.05)
(0.264107 0.491407 0.05)
(0.266006 0.469701 0.05)
(0.281983 0.461437 0.05)
(0.269775 0.448324 0.05)
(0.29232 0.47422 0.05)
(0.29609 0.452844 0.05)
(0.275414 0.427278 0.05)
(0.735893 0.508593 0.05)
(0.733994 0.530299 0.05)
(0.718017 0.538563 0.05)
(0.730225 0.551676 0.05)
(0.70768 0.52578 0.05)
(0.70391 0.547156 0.05)
(0.724586 0.572722 0.05)
(0.721957 0.50003 0.05)
(0.708021 0.491467 0.05)
(0.70785 0.508623 0.05)
(0.708258 0.575843 0.05)
(0.697921 0.56306 0.05)
(0.691931 0.578964 0.05)
(0.278043 0.49997 0.05)
(0.291979 0.508533 0.05)
(0.29215 0.491377 0.05)
(0.29163 0.424024 0.05)
(0.301968 0.436807 0.05)
(0.307845 0.42077 0.05)
(0.708561 0.424058 0.05)
(0.692366 0.420808 0.05)
(0.698395 0.436871 0.05)
(0.330264 0.357498 0.05)
(0.335626 0.373042 0.05)
(0.346676 0.360149 0.05)
(0.291439 0.575942 0.05)
(0.307634 0.579192 0.05)
(0.301605 0.563129 0.05)
(0.669857 0.642622 0.05)
(0.664383 0.626945 0.05)
(0.653677 0.640224 0.05)
(0.610953 0.692236 0.05)
(0.611401 0.675885 0.05)
(0.596457 0.684315 0.05)
(0.461487 0.28141 0.05)
(0.455474 0.296621 0.05)
(0.4724 0.29381 0.05)
(0.538388 0.718442 0.05)
(0.544289 0.703098 0.05)
(0.527462 0.706026 0.05)
(0.538639 0.281603 0.05)
(0.527845 0.294003 0.05)
(0.544659 0.297007 0.05)
(0.389168 0.307884 0.05)
(0.388953 0.324488 0.05)
(0.403552 0.315672 0.05)
(0.66976 0.357525 0.05)
(0.653351 0.3602 0.05)
(0.664418 0.373073 0.05)
(0.461347 0.71838 0.05)
(0.472127 0.705964 0.05)
(0.455325 0.702974 0.05)
(0.33024 0.642474 0.05)
(0.346649 0.6398 0.05)
(0.335582 0.626927 0.05)
(0.389156 0.691897 0.05)
(0.403531 0.683915 0.05)
(0.388937 0.67527 0.05)
(0.610842 0.308101 0.05)
(0.596465 0.316081 0.05)
(0.611061 0.324728 0.05)
)


// ************************************************************************* //
