/*--------------------------------*- C++ -*----------------------------------*\
| =========                 |                                                 |
| \\      /  F ield         | OpenFOAM: The Open Source CFD Toolbox           |
|  \\    /   O peration     | Version:  v1806                                 |
|   \\  /    A nd           | Web:      www.OpenFOAM.com                      |
|    \\/     M anipulation  |                                                 |
\*---------------------------------------------------------------------------*/
FoamFile
{
    version     2.0;
    format      ascii;
    class       polyBoundaryMesh;
    location    "constant/polyMesh";
    object      boundary;
}
// * * * * * * * * * * * * * * * * * * * * * * * * * * * * * * * * * * * * * //

3
(
    movingWall
    {
        type            wall;
        inGroups        1(wall);
        nFaces          36;
        startFace       2520;
    }
    fixedWalls
    {
        type            wall;
        inGroups        1(wall);
        nFaces          108;
        startFace       2556;
    }
    frontAndBack
    {
        type            empty;
        inGroups        1(empty);
        nFaces          2592;
        startFace       2664;
    }
)

// ************************************************************************* //
