/*--------------------------------*- C++ -*----------------------------------*\
| =========                 |                                                 |
| \\      /  F ield         | OpenFOAM: The Open Source CFD Toolbox           |
|  \\    /   O peration     | Version:  v1806                                 |
|   \\  /    A nd           | Web:      www.OpenFOAM.com                      |
|    \\/     M anipulation  |                                                 |
\*---------------------------------------------------------------------------*/
FoamFile
{
    version     2.0;
    format      ascii;
    class       vectorField;
    object      currentcloudofpoints;
}
// * * * * * * * * * * * * * * * * * * * * * * * * * * * * * * * * * * * * * //

648
(
(0.196119 0.517498 0.05)
(0.664832 0.503044 0.05)
(0.281622 0.558072 0.05)
(0.583139 0.45776 0.05)
(0.205286 0.497299 0.05)
(0.215371 0.478854 0.05)
(0.226102 0.461869 0.05)
(0.237351 0.446075 0.05)
(0.249124 0.431014 0.05)
(0.261195 0.41665 0.05)
(0.273343 0.402491 0.05)
(0.285604 0.388508 0.05)
(0.29794 0.3745 0.05)
(0.310431 0.360497 0.05)
(0.323133 0.346431 0.05)
(0.336169 0.332359 0.05)
(0.349731 0.318426 0.05)
(0.364086 0.304901 0.05)
(0.379476 0.291968 0.05)
(0.396063 0.27987 0.05)
(0.413826 0.268852 0.05)
(0.432876 0.259229 0.05)
(0.453192 0.251268 0.05)
(0.474841 0.24516 0.05)
(0.497935 0.241225 0.05)
(0.522375 0.240037 0.05)
(0.547752 0.242307 0.05)
(0.573444 0.248574 0.05)
(0.5987 0.259139 0.05)
(0.622515 0.274026 0.05)
(0.643928 0.292995 0.05)
(0.661816 0.315246 0.05)
(0.675509 0.339938 0.05)
(0.684585 0.365701 0.05)
(0.689119 0.391618 0.05)
(0.689507 0.416876 0.05)
(0.686545 0.440923 0.05)
(0.681038 0.463388 0.05)
(0.673641 0.484061 0.05)
(0.655094 0.520647 0.05)
(0.644892 0.537234 0.05)
(0.634325 0.553222 0.05)
(0.623186 0.568765 0.05)
(0.611634 0.584 0.05)
(0.599746 0.599013 0.05)
(0.587731 0.613821 0.05)
(0.57592 0.628497 0.05)
(0.564565 0.643047 0.05)
(0.553905 0.657702 0.05)
(0.54403 0.672555 0.05)
(0.534767 0.687694 0.05)
(0.52562 0.703115 0.05)
(0.515861 0.718729 0.05)
(0.504529 0.73426 0.05)
(0.49084 0.749403 0.05)
(0.474212 0.763466 0.05)
(0.454601 0.775643 0.05)
(0.431755 0.785209 0.05)
(0.406349 0.791272 0.05)
(0.379261 0.793157 0.05)
(0.351625 0.790657 0.05)
(0.32471 0.784189 0.05)
(0.299458 0.774468 0.05)
(0.276367 0.762082 0.05)
(0.255581 0.747439 0.05)
(0.237017 0.730727 0.05)
(0.220686 0.711836 0.05)
(0.206775 0.690779 0.05)
(0.195563 0.667546 0.05)
(0.187378 0.642538 0.05)
(0.182538 0.616341 0.05)
(0.181247 0.589863 0.05)
(0.183395 0.564083 0.05)
(0.188561 0.539796 0.05)
(0.287652 0.545069 0.05)
(0.294837 0.532113 0.05)
(0.302887 0.519063 0.05)
(0.311754 0.505817 0.05)
(0.321256 0.492272 0.05)
(0.331389 0.478315 0.05)
(0.342084 0.464018 0.05)
(0.35333 0.44956 0.05)
(0.365116 0.435207 0.05)
(0.377304 0.421327 0.05)
(0.389808 0.408182 0.05)
(0.40249 0.396021 0.05)
(0.415218 0.384967 0.05)
(0.427852 0.374978 0.05)
(0.440293 0.366032 0.05)
(0.452711 0.35802 0.05)
(0.465054 0.350891 0.05)
(0.477298 0.344607 0.05)
(0.489427 0.339199 0.05)
(0.501589 0.334834 0.05)
(0.513816 0.331598 0.05)
(0.526169 0.329869 0.05)
(0.538496 0.329667 0.05)
(0.550667 0.331483 0.05)
(0.562336 0.335151 0.05)
(0.573156 0.340924 0.05)
(0.582653 0.348715 0.05)
(0.590543 0.358069 0.05)
(0.596493 0.369002 0.05)
(0.600225 0.381019 0.05)
(0.601846 0.393574 0.05)
(0.601378 0.406381 0.05)
(0.59904 0.419243 0.05)
(0.59505 0.432056 0.05)
(0.589683 0.444852 0.05)
(0.575584 0.470945 0.05)
(0.567166 0.484516 0.05)
(0.558119 0.498479 0.05)
(0.548557 0.512849 0.05)
(0.538554 0.527547 0.05)
(0.528024 0.54247 0.05)
(0.516887 0.557502 0.05)
(0.505182 0.572464 0.05)
(0.493044 0.587393 0.05)
(0.480914 0.602043 0.05)
(0.469239 0.61636 0.05)
(0.457991 0.630352 0.05)
(0.447642 0.643701 0.05)
(0.437879 0.656285 0.05)
(0.42837 0.668028 0.05)
(0.419046 0.678599 0.05)
(0.409585 0.687795 0.05)
(0.399653 0.69544 0.05)
(0.389082 0.701338 0.05)
(0.377804 0.705314 0.05)
(0.365847 0.707219 0.05)
(0.353406 0.706945 0.05)
(0.340785 0.704451 0.05)
(0.328347 0.699817 0.05)
(0.316523 0.693159 0.05)
(0.305668 0.684716 0.05)
(0.296042 0.674693 0.05)
(0.287914 0.663423 0.05)
(0.281321 0.651183 0.05)
(0.276389 0.638272 0.05)
(0.27314 0.624944 0.05)
(0.271592 0.611432 0.05)
(0.271728 0.597902 0.05)
(0.273513 0.584467 0.05)
(0.276835 0.571182 0.05)
(0.637827 0.44669 0.05)
(0.233212 0.571145 0.05)
(0.261416 0.509466 0.05)
(0.602893 0.506402 0.05)
(0.302235 0.453187 0.05)
(0.399769 0.343451 0.05)
(0.510027 0.627476 0.05)
(0.349678 0.396015 0.05)
(0.468759 0.686809 0.05)
(0.558581 0.56514 0.05)
(0.456592 0.305078 0.05)
(0.235715 0.644802 0.05)
(0.426127 0.733592 0.05)
(0.643938 0.371582 0.05)
(0.355602 0.748129 0.05)
(0.27978 0.712043 0.05)
(0.524043 0.286009 0.05)
(0.598126 0.306108 0.05)
(0.285575 0.510777 0.05)
(0.271201 0.534481 0.05)
(0.612155 0.449552 0.05)
(0.621754 0.424466 0.05)
(0.256927 0.566689 0.05)
(0.251435 0.592689 0.05)
(0.326938 0.454469 0.05)
(0.307926 0.47944 0.05)
(0.577046 0.505456 0.05)
(0.593631 0.480958 0.05)
(0.625205 0.388814 0.05)
(0.619026 0.361332 0.05)
(0.532579 0.565569 0.05)
(0.55277 0.538849 0.05)
(0.375832 0.396738 0.05)
(0.354039 0.421264 0.05)
(0.483532 0.627797 0.05)
(0.50456 0.601242 0.05)
(0.480889 0.318777 0.05)
(0.457394 0.330574 0.05)
(0.427248 0.349899 0.05)
(0.404683 0.368027 0.05)
(0.400269 0.721543 0.05)
(0.420566 0.708365 0.05)
(0.44302 0.683689 0.05)
(0.459229 0.660944 0.05)
(0.253036 0.628667 0.05)
(0.261264 0.655927 0.05)
(0.339662 0.725344 0.05)
(0.367667 0.728882 0.05)
(0.281969 0.688328 0.05)
(0.304472 0.708463 0.05)
(0.539874 0.307101 0.05)
(0.51347 0.308809 0.05)
(0.597838 0.331193 0.05)
(0.574435 0.315775 0.05)
(0.643726 0.410431 0.05)
(0.619929 0.475911 0.05)
(0.247214 0.54047 0.05)
(0.282636 0.483213 0.05)
(0.579713 0.533461 0.05)
(0.232224 0.607469 0.05)
(0.327327 0.426339 0.05)
(0.429261 0.324553 0.05)
(0.532118 0.594734 0.05)
(0.447441 0.710877 0.05)
(0.376458 0.369917 0.05)
(0.485655 0.656268 0.05)
(0.625385 0.335713 0.05)
(0.489703 0.294689 0.05)
(0.393226 0.744264 0.05)
(0.316047 0.73369 0.05)
(0.254699 0.67977 0.05)
(0.561272 0.292207 0.05)
(0.654893 0.34325 0.05)
(0.667422 0.395155 0.05)
(0.664137 0.43449 0.05)
(0.649155 0.476947 0.05)
(0.206835 0.586319 0.05)
(0.217153 0.541422 0.05)
(0.59028 0.564693 0.05)
(0.56354 0.598076 0.05)
(0.497161 0.266635 0.05)
(0.546301 0.26542 0.05)
(0.271711 0.451775 0.05)
(0.296995 0.420583 0.05)
(0.460199 0.739218 0.05)
(0.422659 0.761803 0.05)
(0.289422 0.743458 0.05)
(0.247955 0.708184 0.05)
(0.224558 0.674319 0.05)
(0.208597 0.62548 0.05)
(0.423892 0.295286 0.05)
(0.462491 0.276076 0.05)
(0.383692 0.769843 0.05)
(0.329065 0.762343 0.05)
(0.542808 0.624551 0.05)
(0.518287 0.65775 0.05)
(0.3663 0.341597 0.05)
(0.396899 0.314077 0.05)
(0.501346 0.683887 0.05)
(0.480845 0.716125 0.05)
(0.317642 0.396423 0.05)
(0.344576 0.365469 0.05)
(0.585761 0.276694 0.05)
(0.63028 0.307844 0.05)
(0.231611 0.511088 0.05)
(0.253013 0.476899 0.05)
(0.632662 0.505287 0.05)
(0.609905 0.538917 0.05)
(0.282709 0.534019 0.05)
(0.276182 0.546512 0.05)
(0.2901 0.521664 0.05)
(0.278397 0.522827 0.05)
(0.298334 0.509229 0.05)
(0.27335 0.510813 0.05)
(0.266364 0.522134 0.05)
(0.598101 0.452602 0.05)
(0.604136 0.440154 0.05)
(0.617113 0.437069 0.05)
(0.608919 0.42755 0.05)
(0.625363 0.447849 0.05)
(0.630162 0.435351 0.05)
(0.612241 0.414581 0.05)
(0.269003 0.563065 0.05)
(0.264927 0.575974 0.05)
(0.25395 0.579667 0.05)
(0.262305 0.589118 0.05)
(0.245109 0.5692 0.05)
(0.242186 0.582094 0.05)
(0.261193 0.602568 0.05)
(0.319408 0.479584 0.05)
(0.309936 0.492636 0.05)
(0.32935 0.466331 0.05)
(0.317544 0.467316 0.05)
(0.339853 0.452771 0.05)
(0.314436 0.454641 0.05)
(0.305425 0.466314 0.05)
(0.580807 0.481638 0.05)
(0.588695 0.468891 0.05)
(0.572255 0.494596 0.05)
(0.5852 0.492833 0.05)
(0.563097 0.507925 0.05)
(0.59028 0.505109 0.05)
(0.598269 0.493551 0.05)
(0.610377 0.370962 0.05)
(0.605148 0.358672 0.05)
(0.613297 0.383883 0.05)
(0.622751 0.375017 0.05)
(0.613999 0.397192 0.05)
(0.635136 0.380353 0.05)
(0.631908 0.36598 0.05)
(0.540578 0.539804 0.05)
(0.550558 0.525701 0.05)
(0.530124 0.553982 0.05)
(0.54257 0.551903 0.05)
(0.519043 0.568251 0.05)
(0.545748 0.564555 0.05)
(0.555383 0.552061 0.05)
(0.365558 0.421543 0.05)
(0.354221 0.435039 0.05)
(0.377225 0.408593 0.05)
(0.36515 0.409051 0.05)
(0.389126 0.396371 0.05)
(0.362674 0.396746 0.05)
(0.35256 0.408287 0.05)
(0.492697 0.601305 0.05)
(0.504223 0.587112 0.05)
(0.481481 0.615229 0.05)
(0.493548 0.614322 0.05)
(0.4706 0.628924 0.05)
(0.496691 0.627233 0.05)
(0.506431 0.614741 0.05)
(0.467815 0.337274 0.05)
(0.456053 0.343983 0.05)
(0.479677 0.331443 0.05)
(0.469256 0.324729 0.05)
(0.491749 0.326451 0.05)
(0.468978 0.311753 0.05)
(0.457439 0.317633 0.05)
(0.416501 0.371245 0.05)
(0.404612 0.381495 0.05)
(0.428384 0.361992 0.05)
(0.416218 0.358911 0.05)
(0.440359 0.35365 0.05)
(0.41362 0.346563 0.05)
(0.403025 0.355439 0.05)
(0.409697 0.702377 0.05)
(0.419108 0.694122 0.05)
(0.399576 0.709058 0.05)
(0.4106 0.715258 0.05)
(0.388495 0.714008 0.05)
(0.412917 0.727963 0.05)
(0.423093 0.72136 0.05)
(0.448304 0.658833 0.05)
(0.457576 0.646153 0.05)
(0.439417 0.670669 0.05)
(0.450726 0.672328 0.05)
(0.430781 0.681512 0.05)
(0.455663 0.685435 0.05)
(0.463214 0.67438 0.05)
(0.268627 0.647392 0.05)
(0.274475 0.660386 0.05)
(0.26455 0.634032 0.05)
(0.256762 0.642354 0.05)
(0.262145 0.62042 0.05)
(0.244199 0.636583 0.05)
(0.248324 0.650521 0.05)
(0.359916 0.718362 0.05)
(0.372775 0.717732 0.05)
(0.346657 0.716764 0.05)
(0.353784 0.727731 0.05)
(0.333301 0.712977 0.05)
(0.347223 0.737032 0.05)
(0.362038 0.738957 0.05)
(0.304589 0.696875 0.05)
(0.316619 0.704952 0.05)
(0.293847 0.687189 0.05)
(0.292822 0.698757 0.05)
(0.284507 0.676143 0.05)
(0.280374 0.700219 0.05)
(0.292117 0.71065 0.05)
(0.520469 0.318897 0.05)
(0.507854 0.321414 0.05)
(0.533239 0.317914 0.05)
(0.526567 0.307683 0.05)
(0.546151 0.318776 0.05)
(0.532337 0.296248 0.05)
(0.518696 0.297065 0.05)
(0.574642 0.327982 0.05)
(0.562549 0.322736 0.05)
(0.585648 0.335232 0.05)
(0.586426 0.322877 0.05)
(0.59524 0.344351 0.05)
(0.598681 0.318444 0.05)
(0.586261 0.310226 0.05)
(0.624158 0.406838 0.05)
(0.633196 0.417552 0.05)
(0.635025 0.399185 0.05)
(0.641229 0.428896 0.05)
(0.644869 0.391324 0.05)
(0.602838 0.464907 0.05)
(0.607056 0.477752 0.05)
(0.616217 0.462649 0.05)
(0.611166 0.490844 0.05)
(0.628928 0.461352 0.05)
(0.263873 0.550705 0.05)
(0.259127 0.538025 0.05)
(0.251947 0.553666 0.05)
(0.254384 0.525083 0.05)
(0.240082 0.555735 0.05)
(0.29689 0.495718 0.05)
(0.295122 0.482132 0.05)
(0.284349 0.496973 0.05)
(0.292752 0.468595 0.05)
(0.272161 0.496847 0.05)
(0.56462 0.521496 0.05)
(0.566468 0.535212 0.05)
(0.578135 0.519459 0.05)
(0.568832 0.548845 0.05)
(0.591104 0.519248 0.05)
(0.25169 0.610627 0.05)
(0.241764 0.600077 0.05)
(0.242376 0.61824 0.05)
(0.232255 0.589131 0.05)
(0.233312 0.626034 0.05)
(0.340714 0.438362 0.05)
(0.340478 0.424584 0.05)
(0.327692 0.440159 0.05)
(0.338954 0.411433 0.05)
(0.314981 0.440516 0.05)
(0.442682 0.340306 0.05)
(0.443502 0.327419 0.05)
(0.428877 0.337046 0.05)
(0.443112 0.314888 0.05)
(0.414774 0.334059 0.05)
(0.518158 0.583028 0.05)
(0.518427 0.597292 0.05)
(0.531788 0.580406 0.05)
(0.520227 0.610884 0.05)
(0.545108 0.579338 0.05)
(0.43156 0.696328 0.05)
(0.433881 0.709888 0.05)
(0.444473 0.697842 0.05)
(0.437001 0.722542 0.05)
(0.457871 0.698845 0.05)
(0.39077 0.382224 0.05)
(0.390514 0.369072 0.05)
(0.377012 0.382894 0.05)
(0.38868 0.356617 0.05)
(0.363376 0.383148 0.05)
(0.470462 0.644153 0.05)
(0.472302 0.658393 0.05)
(0.483626 0.642503 0.05)
(0.476381 0.671486 0.05)
(0.497052 0.641422 0.05)
(0.609421 0.345598 0.05)
(0.62304 0.348565 0.05)
(0.611828 0.332642 0.05)
(0.635811 0.353103 0.05)
(0.612661 0.319913 0.05)
(0.497137 0.313664 0.05)
(0.501856 0.301507 0.05)
(0.485374 0.306509 0.05)
(0.506602 0.289954 0.05)
(0.473102 0.299818 0.05)
(0.384466 0.726051 0.05)
(0.380121 0.737053 0.05)
(0.39706 0.733268 0.05)
(0.374973 0.747231 0.05)
(0.410243 0.739564 0.05)
(0.321719 0.717813 0.05)
(0.309666 0.721268 0.05)
(0.328146 0.730134 0.05)
(0.297349 0.723624 0.05)
(0.335566 0.741945 0.05)
(0.270891 0.672482 0.05)
(0.257536 0.667773 0.05)
(0.268193 0.684395 0.05)
(0.24452 0.662517 0.05)
(0.266419 0.696325 0.05)
(0.557186 0.310544 0.05)
(0.568443 0.303643 0.05)
(0.550367 0.299154 0.05)
(0.57991 0.298045 0.05)
(0.542582 0.288353 0.05)
(0.658478 0.329107 0.05)
(0.670023 0.354465 0.05)
(0.663083 0.369009 0.05)
(0.676531 0.380667 0.05)
(0.650191 0.357521 0.05)
(0.656119 0.3832 0.05)
(0.678309 0.406692 0.05)
(0.664758 0.471357 0.05)
(0.655975 0.490874 0.05)
(0.671892 0.449961 0.05)
(0.656867 0.456416 0.05)
(0.676814 0.426457 0.05)
(0.651159 0.441052 0.05)
(0.643361 0.462075 0.05)
(0.200369 0.549943 0.05)
(0.2076 0.528244 0.05)
(0.195562 0.573505 0.05)
(0.211601 0.563236 0.05)
(0.193904 0.598687 0.05)
(0.220139 0.577763 0.05)
(0.225453 0.555966 0.05)
(0.606254 0.566625 0.05)
(0.593937 0.582298 0.05)
(0.57631 0.580704 0.05)
(0.581408 0.5979 0.05)
(0.574526 0.563986 0.05)
(0.560199 0.581954 0.05)
(0.568814 0.613485 0.05)
(0.484757 0.25657 0.05)
(0.508519 0.253152 0.05)
(0.521231 0.265072 0.05)
(0.533465 0.252899 0.05)
(0.510464 0.276243 0.05)
(0.534568 0.275244 0.05)
(0.559233 0.256527 0.05)
(0.255457 0.448959 0.05)
(0.267483 0.434064 0.05)
(0.285015 0.436977 0.05)
(0.279712 0.419345 0.05)
(0.287055 0.453524 0.05)
(0.300421 0.436682 0.05)
(0.291991 0.404721 0.05)
(0.476505 0.74293 0.05)
(0.459889 0.756375 0.05)
(0.442672 0.750945 0.05)
(0.439831 0.767825 0.05)
(0.443326 0.73634 0.05)
(0.425421 0.747628 0.05)
(0.416513 0.776392 0.05)
(0.294891 0.759059 0.05)
(0.271839 0.744556 0.05)
(0.267641 0.726503 0.05)
(0.251379 0.727629 0.05)
(0.284098 0.72777 0.05)
(0.263493 0.709837 0.05)
(0.233562 0.708431 0.05)
(0.221642 0.692049 0.05)
(0.209431 0.669009 0.05)
(0.215424 0.649974 0.05)
(0.200645 0.644459 0.05)
(0.229405 0.658707 0.05)
(0.221947 0.6345 0.05)
(0.195436 0.618911 0.05)
(0.408919 0.288825 0.05)
(0.427081 0.278036 0.05)
(0.442944 0.285731 0.05)
(0.446414 0.268717 0.05)
(0.440081 0.300397 0.05)
(0.459179 0.290669 0.05)
(0.467242 0.26106 0.05)
(0.396294 0.780255 0.05)
(0.368942 0.78087 0.05)
(0.35649 0.767823 0.05)
(0.341294 0.776737 0.05)
(0.369767 0.759325 0.05)
(0.342959 0.755772 0.05)
(0.314421 0.768329 0.05)
(0.559302 0.625761 0.05)
(0.547237 0.641061 0.05)
(0.529195 0.640509 0.05)
(0.536062 0.656486 0.05)
(0.526373 0.625105 0.05)
(0.512899 0.643037 0.05)
(0.525879 0.672192 0.05)
(0.350708 0.338301 0.05)
(0.364832 0.324388 0.05)
(0.381969 0.328126 0.05)
(0.379668 0.310894 0.05)
(0.382775 0.343015 0.05)
(0.398731 0.328892 0.05)
(0.395491 0.298069 0.05)
(0.518131 0.684515 0.05)
(0.508562 0.7003 0.05)
(0.490418 0.69972 0.05)
(0.498716 0.715975 0.05)
(0.484841 0.68489 0.05)
(0.474176 0.701713 0.05)
(0.487176 0.731542 0.05)
(0.301827 0.393373 0.05)
(0.314556 0.378917 0.05)
(0.33175 0.381452 0.05)
(0.327315 0.36434 0.05)
(0.33348 0.397198 0.05)
(0.347909 0.380562 0.05)
(0.340391 0.349814 0.05)
(0.579181 0.262633 0.05)
(0.603866 0.274465 0.05)
(0.608947 0.290542 0.05)
(0.626487 0.290698 0.05)
(0.592331 0.291073 0.05)
(0.614345 0.306026 0.05)
(0.646054 0.311024 0.05)
(0.214769 0.512593 0.05)
(0.224784 0.494248 0.05)
(0.242836 0.494186 0.05)
(0.235331 0.477229 0.05)
(0.246906 0.510627 0.05)
(0.257841 0.493117 0.05)
(0.246371 0.460984 0.05)
(0.648082 0.504964 0.05)
(0.637562 0.521942 0.05)
(0.62075 0.521574 0.05)
(0.626712 0.538271 0.05)
(0.617799 0.505407 0.05)
(0.605807 0.522837 0.05)
(0.61557 0.554373 0.05)
(0.640701 0.491157 0.05)
(0.634613 0.476494 0.05)
(0.625986 0.490773 0.05)
(0.599796 0.55137 0.05)
(0.594869 0.535491 0.05)
(0.584392 0.549264 0.05)
(0.224558 0.526066 0.05)
(0.232671 0.540714 0.05)
(0.239905 0.52568 0.05)
(0.262671 0.464674 0.05)
(0.268111 0.48068 0.05)
(0.277897 0.467532 0.05)
(0.66643 0.41525 0.05)
(0.656059 0.403267 0.05)
(0.654173 0.422574 0.05)
(0.30775 0.408907 0.05)
(0.312177 0.424552 0.05)
(0.323259 0.411201 0.05)
(0.207077 0.605623 0.05)
(0.220089 0.615168 0.05)
(0.219613 0.596281 0.05)
(0.552574 0.610964 0.05)
(0.547848 0.595553 0.05)
(0.536414 0.610022 0.05)
(0.509014 0.670466 0.05)
(0.501732 0.65642 0.05)
(0.492465 0.670449 0.05)
(0.410505 0.304825 0.05)
(0.41288 0.31958 0.05)
(0.426629 0.310068 0.05)
(0.470826 0.727593 0.05)
(0.463915 0.713451 0.05)
(0.453896 0.725037 0.05)
(0.479527 0.271178 0.05)
(0.475847 0.285502 0.05)
(0.492884 0.280602 0.05)
(0.355796 0.353765 0.05)
(0.360289 0.368354 0.05)
(0.371971 0.355809 0.05)
(0.643607 0.324751 0.05)
(0.628417 0.321613 0.05)
(0.640483 0.33883 0.05)
(0.403797 0.766661 0.05)
(0.408195 0.75315 0.05)
(0.389618 0.757228 0.05)
(0.235554 0.691529 0.05)
(0.250575 0.693421 0.05)
(0.239254 0.676331 0.05)
(0.308792 0.753635 0.05)
(0.322484 0.748176 0.05)
(0.302755 0.738729 0.05)
(0.566056 0.27008 0.05)
(0.553858 0.278648 0.05)
(0.573228 0.283815 0.05)
)

// ************************************************************************* //
